/*--------------------------------*- C++ -*----------------------------------*\
  =========                 |
  \\      /  F ield         | OpenFOAM: The Open Source CFD Toolbox
   \\    /   O peration     | Website:  https://openfoam.org
    \\  /    A nd           | Version:  6
     \\/     M anipulation  |
\*---------------------------------------------------------------------------*/
FoamFile
{
    version     2.0;
    format      ascii;
    class       polyBoundaryMesh;
    location    "constant/polyMesh";
    object      boundary;
}
// * * * * * * * * * * * * * * * * * * * * * * * * * * * * * * * * * * * * * //

7
(
    inlet
    {
        type            patch;
        nFaces          0;
        startFace       46353;
    }
    outlet
    {
        type            patch;
        nFaces          0;
        startFace       46353;
    }
    force
    {
        type            patch;
        nFaces          800;
        startFace       46353;
    }
    wall
    {
        type            patch;
        nFaces          416;
        startFace       47153;
    }
    sym
    {
        type            symmetry;
        inGroups        1(symmetry);
        nFaces          1215;
        startFace       47569;
    }
    procBoundary2to1
    {
        type            processor;
        inGroups        1(processor);
        nFaces          800;
        startFace       48784;
        matchTolerance  0.0001;
        transform       unknown;
        myProcNo        2;
        neighbProcNo    1;
    }
    procBoundary2to3
    {
        type            processor;
        inGroups        1(processor);
        nFaces          831;
        startFace       49584;
        matchTolerance  0.0001;
        transform       unknown;
        myProcNo        2;
        neighbProcNo    3;
    }
)

// ************************************************************************* //
