/*--------------------------------*- C++ -*----------------------------------*\
  =========                 |
  \\      /  F ield         | OpenFOAM: The Open Source CFD Toolbox
   \\    /   O peration     | Website:  https://openfoam.org
    \\  /    A nd           | Version:  6
     \\/     M anipulation  |
\*---------------------------------------------------------------------------*/
FoamFile
{
    version     2.0;
    format      ascii;
    class       polyBoundaryMesh;
    location    "constant/polyMesh";
    object      boundary;
}
// * * * * * * * * * * * * * * * * * * * * * * * * * * * * * * * * * * * * * //

6
(
    inlet
    {
        type            patch;
        nFaces          32;
        startFace       46288;
    }
    outlet
    {
        type            patch;
        nFaces          0;
        startFace       46320;
    }
    force
    {
        type            patch;
        nFaces          800;
        startFace       46320;
    }
    wall
    {
        type            patch;
        nFaces          1248;
        startFace       47120;
    }
    sym
    {
        type            symmetry;
        inGroups        1(symmetry);
        nFaces          1281;
        startFace       48368;
    }
    procBoundary3to2
    {
        type            processor;
        inGroups        1(processor);
        nFaces          831;
        startFace       49649;
        matchTolerance  0.0001;
        transform       unknown;
        myProcNo        3;
        neighbProcNo    2;
    }
)

// ************************************************************************* //
