/*--------------------------------*- C++ -*----------------------------------*\
  =========                 |
  \\      /  F ield         | OpenFOAM: The Open Source CFD Toolbox
   \\    /   O peration     | Website:  https://openfoam.org
    \\  /    A nd           | Version:  6
     \\/     M anipulation  |
\*---------------------------------------------------------------------------*/
FoamFile
{
    version     2.0;
    format      ascii;
    class       polyBoundaryMesh;
    location    "constant/polyMesh";
    object      boundary;
}
// * * * * * * * * * * * * * * * * * * * * * * * * * * * * * * * * * * * * * //

7
(
    inlet
    {
        type            patch;
        nFaces          0;
        startFace       46353;
    }
    outlet
    {
        type            patch;
        nFaces          0;
        startFace       46353;
    }
    force
    {
        type            patch;
        nFaces          815;
        startFace       46353;
    }
    wall
    {
        type            patch;
        nFaces          400;
        startFace       47168;
    }
    sym
    {
        type            symmetry;
        inGroups        1(symmetry);
        nFaces          1216;
        startFace       47568;
    }
    procBoundary1to0
    {
        type            processor;
        inGroups        1(processor);
        nFaces          831;
        startFace       48784;
        matchTolerance  0.0001;
        transform       unknown;
        myProcNo        1;
        neighbProcNo    0;
    }
    procBoundary1to2
    {
        type            processor;
        inGroups        1(processor);
        nFaces          800;
        startFace       49615;
        matchTolerance  0.0001;
        transform       unknown;
        myProcNo        1;
        neighbProcNo    2;
    }
)

// ************************************************************************* //
