/*--------------------------------*- C++ -*----------------------------------*\
| =========                 |                                                 |
| \\      /  F ield         | OpenFOAM: The Open Source CFD Toolbox           |
|  \\    /   O peration     | Version:  5                                     |
|   \\  /    A nd           | Web:      www.OpenFOAM.org                      |
|    \\/     M anipulation  |                                                 |
\*---------------------------------------------------------------------------*/
FoamFile
{
    version     2.0;
    format      ascii;
    class       volScalarField;
    object      Tc;
}
// * * * * * * * * * * * * * * * * * * * * * * * * * * * * * * * * * * * * * //

dimensions      [0 0 0 1 0 0 0];

internalField   uniform 0;

boundaryField
{
    inlet
    {
        type            fixedValue;
        value           uniform 0;
    }
    outlet
    {
       type             groovyBC; // T_face = fractionExpr * valueExpr + (1 - fractionExpr)(T_centre + gradientxpr * delta)
       variables "k_=DT;h_=U&normal();f_=1/(1+k_/(h_*mag(delta())));";
       valueExpression  "0";    // the value to be used
       gradientExpression "0";  // the gradient to be used
       fractionExpression "f_"; // Determines whether the face is Dirichlet (1) or Neumann (0)
       value           uniform 0;  //  0时刻时的值，可能会Floating Point Exception
    }
    wall
    {
        type            zeroGradient;  // 按理说只要是T的第二类边界条件，都要使用groovyBC 
    }
    force
    {
        type            zeroGradient;   
    } 
    sym
    {
        type            symmetry;
    }

}

// ************************************************************************* //
